
!New Load.0862099-D1 Phases=3 Bus1=S1X_0862099 kV=0.208 kW=0.0001 pf=0.9 status=variable model=4 CVRwatts=0.8 CVRvars=3 Class=1 yearly=25607 conn=wye xfkVA=50
New Load.0862099-D1_1 phases=1 S1X_0862099.1 kV=0.208 kW=0.0000333 pf=0.9 status=variable model=4 CVRwatts=0.8 CVRvars=3 Class=1 yearly=25607 conn=wye xfkVA=16.6666667 AllocationFactor=0.36956 
New Load.0862099-D1_2 phases=1 S1X_0862099.2 kV=0.208 kW=0.0000333 pf=0.9 status=variable model=4 CVRwatts=0.8 CVRvars=3 Class=1 yearly=25607 conn=wye xfkVA=16.6666667 AllocationFactor=0.36956 
New Load.0862099-D1_3 phases=1 S1X_0862099.3 kV=0.208 kW=0.0000333 pf=0.9 status=variable model=4 CVRwatts=0.8 CVRvars=3 Class=1 yearly=25607 conn=wye xfkVA=16.6666667 AllocationFactor=0.36956 
!New Load.0862099-D2 Phases=3 Bus1=S2X_0862099 kV=0.208 kW=0.0001 pf=0.9 status=variable model=4 CVRwatts=0.8 CVRvars=3 Class=1 yearly=25607 conn=wye xfkVA=50
New Load.0862099-D2_1 phases=1 S2X_0862099.1 kV=0.208 kW=0.0000333 pf=0.9 status=variable model=4 CVRwatts=0.8 CVRvars=3 Class=1 yearly=25607 conn=wye xfkVA=16.6666667 AllocationFactor=0.36956 
New Load.0862099-D2_2 phases=1 S2X_0862099.2 kV=0.208 kW=0.0000333 pf=0.9 status=variable model=4 CVRwatts=0.8 CVRvars=3 Class=1 yearly=25607 conn=wye xfkVA=16.6666667 AllocationFactor=0.36956 
New Load.0862099-D2_3 phases=1 S2X_0862099.3 kV=0.208 kW=0.0000333 pf=0.9 status=variable model=4 CVRwatts=0.8 CVRvars=3 Class=1 yearly=25607 conn=wye xfkVA=16.6666667 AllocationFactor=0.36956 
!New Load.0862099-D3 Phases=3 Bus1=S3X_0862099 kV=0.208 kW=0.0001 pf=0.9 status=variable model=4 CVRwatts=0.8 CVRvars=3 Class=1 yearly=25607 conn=wye xfkVA=50
New Load.0862099-D3_1 phases=1 S3X_0862099.1 kV=0.208 kW=0.0000333 pf=0.9 status=variable model=4 CVRwatts=0.8 CVRvars=3 Class=1 yearly=25607 conn=wye xfkVA=16.6666667 AllocationFactor=0.36956 
New Load.0862099-D3_2 phases=1 S3X_0862099.2 kV=0.208 kW=0.0000333 pf=0.9 status=variable model=4 CVRwatts=0.8 CVRvars=3 Class=1 yearly=25607 conn=wye xfkVA=16.6666667 AllocationFactor=0.36956 
New Load.0862099-D3_3 phases=1 S3X_0862099.3 kV=0.208 kW=0.0000333 pf=0.9 status=variable model=4 CVRwatts=0.8 CVRvars=3 Class=1 yearly=25607 conn=wye xfkVA=16.6666667 AllocationFactor=0.36956 
New Load.1000663-DA1 Phases=1 Bus1=S1X_1000663.1 kV=0.24 kW=0.0001 pf=0.9 status=variable model=4 CVRwatts=0.8 CVRvars=3 Class=1 yearly=25607_A conn=wye xfkVA=25 AllocationFactor=0.35537
New Load.1000663-DB1 Phases=1 Bus1=S1X_1000663.2 kV=0.24 kW=0.0001 pf=0.9 status=variable model=4 CVRwatts=0.8 CVRvars=3 Class=1 yearly=25607_B conn=wye xfkVA=25 AllocationFactor=0.37165
New Load.1000663-DC1 Phases=1 Bus1=S1X_1000663.3 kV=0.24 kW=0.0001 pf=0.9 status=variable model=4 CVRwatts=0.8 CVRvars=3 Class=1 yearly=25607_C conn=wye xfkVA=25 AllocationFactor=0.38188
New Load.1000252-DB1 Phases=1 Bus1=S1X_1000252.2 kV=0.24 kW=0.0001 pf=0.9 status=variable model=4 CVRwatts=0.8 CVRvars=3 Class=1 yearly=25607_B conn=wye xfkVA=37 AllocationFactor=0.37165
!New Load.1001746-D1 Phases=3 Bus1=S1X_1001746 kV=0.208 kW=0.0001 pf=0.9 status=variable model=4 CVRwatts=0.8 CVRvars=3 Class=1 yearly=25607 conn=wye xfkVA=100
New Load.1001746-D1_1 phases=1 S1X_1001746.1 kV=0.208 kW=0.0000333 pf=0.9 status=variable model=4 CVRwatts=0.8 CVRvars=3 Class=1 yearly=25607 conn=wye xfkVA=33.3333333 AllocationFactor=0.36956 
New Load.1001746-D1_2 phases=1 S1X_1001746.2 kV=0.208 kW=0.0000333 pf=0.9 status=variable model=4 CVRwatts=0.8 CVRvars=3 Class=1 yearly=25607 conn=wye xfkVA=33.3333333 AllocationFactor=0.36956 
New Load.1001746-D1_3 phases=1 S1X_1001746.3 kV=0.208 kW=0.0000333 pf=0.9 status=variable model=4 CVRwatts=0.8 CVRvars=3 Class=1 yearly=25607 conn=wye xfkVA=33.3333333 AllocationFactor=0.36956 
!New Load.1001746-D2 Phases=3 Bus1=S2X_1001746 kV=0.208 kW=0.0001 pf=0.9 status=variable model=4 CVRwatts=0.8 CVRvars=3 Class=1 yearly=25607 conn=wye xfkVA=100
New Load.1001746-D2_1 phases=1 S2X_1001746.1 kV=0.208 kW=0.0000333 pf=0.9 status=variable model=4 CVRwatts=0.8 CVRvars=3 Class=1 yearly=25607 conn=wye xfkVA=33.3333333 AllocationFactor=0.36956 
New Load.1001746-D2_2 phases=1 S2X_1001746.2 kV=0.208 kW=0.0000333 pf=0.9 status=variable model=4 CVRwatts=0.8 CVRvars=3 Class=1 yearly=25607 conn=wye xfkVA=33.3333333 AllocationFactor=0.36956 
New Load.1001746-D2_3 phases=1 S2X_1001746.3 kV=0.208 kW=0.0000333 pf=0.9 status=variable model=4 CVRwatts=0.8 CVRvars=3 Class=1 yearly=25607 conn=wye xfkVA=33.3333333 AllocationFactor=0.36956 
!New Load.1001746-D3 Phases=3 Bus1=S3X_1001746 kV=0.208 kW=0.0001 pf=0.9 status=variable model=4 CVRwatts=0.8 CVRvars=3 Class=1 yearly=25607 conn=wye xfkVA=100
New Load.1001746-D3_1 phases=1 S3X_1001746.1 kV=0.208 kW=0.0000333 pf=0.9 status=variable model=4 CVRwatts=0.8 CVRvars=3 Class=1 yearly=25607 conn=wye xfkVA=33.3333333 AllocationFactor=0.36956 
New Load.1001746-D3_2 phases=1 S3X_1001746.2 kV=0.208 kW=0.0000333 pf=0.9 status=variable model=4 CVRwatts=0.8 CVRvars=3 Class=1 yearly=25607 conn=wye xfkVA=33.3333333 AllocationFactor=0.36956 
New Load.1001746-D3_3 phases=1 S3X_1001746.3 kV=0.208 kW=0.0000333 pf=0.9 status=variable model=4 CVRwatts=0.8 CVRvars=3 Class=1 yearly=25607 conn=wye xfkVA=33.3333333 AllocationFactor=0.36956 
New Load.1000502-DB1 Phases=1 Bus1=S1X_1000502.2 kV=0.24 kW=0.0001 pf=0.9 status=variable model=4 CVRwatts=0.8 CVRvars=3 Class=1 yearly=25607_B conn=wye xfkVA=75 AllocationFactor=0.37165
New Load.1000824-DA1 Phases=1 Bus1=S1X_1000824.1 kV=0.24 kW=0.0001 pf=0.9 status=variable model=4 CVRwatts=0.8 CVRvars=3 Class=1 yearly=25607_A conn=wye xfkVA=8.333333 AllocationFactor=0.35537
New Load.1000824-DA2 Phases=1 Bus1=S2X_1000824.1 kV=0.24 kW=0.0001 pf=0.9 status=variable model=4 CVRwatts=0.8 CVRvars=3 Class=1 yearly=25607_A conn=wye xfkVA=8.333333 AllocationFactor=0.35537
New Load.1000824-DA3 Phases=1 Bus1=S3X_1000824.1 kV=0.24 kW=0.0001 pf=0.9 status=variable model=4 CVRwatts=0.8 CVRvars=3 Class=1 yearly=25607_A conn=wye xfkVA=8.333333 AllocationFactor=0.35537
New Load.1000824-DB1 Phases=1 Bus1=S1X_1000824.2 kV=0.24 kW=0.0001 pf=0.9 status=variable model=4 CVRwatts=0.8 CVRvars=3 Class=1 yearly=25607_B conn=wye xfkVA=8.333333 AllocationFactor=0.37165
New Load.1000824-DB2 Phases=1 Bus1=S2X_1000824.2 kV=0.24 kW=0.0001 pf=0.9 status=variable model=4 CVRwatts=0.8 CVRvars=3 Class=1 yearly=25607_B conn=wye xfkVA=8.333333 AllocationFactor=0.37165
New Load.1000824-DB3 Phases=1 Bus1=S3X_1000824.2 kV=0.24 kW=0.0001 pf=0.9 status=variable model=4 CVRwatts=0.8 CVRvars=3 Class=1 yearly=25607_B conn=wye xfkVA=8.333333 AllocationFactor=0.37165
New Load.1000824-DC1 Phases=1 Bus1=S1X_1000824.3 kV=0.24 kW=0.0001 pf=0.9 status=variable model=4 CVRwatts=0.8 CVRvars=3 Class=1 yearly=25607_C conn=wye xfkVA=8.333333 AllocationFactor=0.38188
New Load.1000824-DC2 Phases=1 Bus1=S2X_1000824.3 kV=0.24 kW=0.0001 pf=0.9 status=variable model=4 CVRwatts=0.8 CVRvars=3 Class=1 yearly=25607_C conn=wye xfkVA=8.333333 AllocationFactor=0.38188
New Load.1000824-DC3 Phases=1 Bus1=S3X_1000824.3 kV=0.24 kW=0.0001 pf=0.9 status=variable model=4 CVRwatts=0.8 CVRvars=3 Class=1 yearly=25607_C conn=wye xfkVA=8.333333 AllocationFactor=0.38188
!New Load.1001745-D1 Phases=3 Bus1=S1X_1001745 kV=0.208 kW=0.0001 pf=0.9 status=variable model=4 CVRwatts=0.8 CVRvars=3 Class=1 yearly=25607 conn=wye xfkVA=100
New Load.1001745-D1_1 phases=1 S1X_1001745.1 kV=0.208 kW=0.0000333 pf=0.9 status=variable model=4 CVRwatts=0.8 CVRvars=3 Class=1 yearly=25607 conn=wye xfkVA=33.3333333 AllocationFactor=0.36956 
New Load.1001745-D1_2 phases=1 S1X_1001745.2 kV=0.208 kW=0.0000333 pf=0.9 status=variable model=4 CVRwatts=0.8 CVRvars=3 Class=1 yearly=25607 conn=wye xfkVA=33.3333333 AllocationFactor=0.36956 
New Load.1001745-D1_3 phases=1 S1X_1001745.3 kV=0.208 kW=0.0000333 pf=0.9 status=variable model=4 CVRwatts=0.8 CVRvars=3 Class=1 yearly=25607 conn=wye xfkVA=33.3333333 AllocationFactor=0.36956 
!New Load.1001745-D2 Phases=3 Bus1=S2X_1001745 kV=0.208 kW=0.0001 pf=0.9 status=variable model=4 CVRwatts=0.8 CVRvars=3 Class=1 yearly=25607 conn=wye xfkVA=100
New Load.1001745-D2_1 phases=1 S2X_1001745.1 kV=0.208 kW=0.0000333 pf=0.9 status=variable model=4 CVRwatts=0.8 CVRvars=3 Class=1 yearly=25607 conn=wye xfkVA=33.3333333 AllocationFactor=0.36956 
New Load.1001745-D2_2 phases=1 S2X_1001745.2 kV=0.208 kW=0.0000333 pf=0.9 status=variable model=4 CVRwatts=0.8 CVRvars=3 Class=1 yearly=25607 conn=wye xfkVA=33.3333333 AllocationFactor=0.36956 
New Load.1001745-D2_3 phases=1 S2X_1001745.3 kV=0.208 kW=0.0000333 pf=0.9 status=variable model=4 CVRwatts=0.8 CVRvars=3 Class=1 yearly=25607 conn=wye xfkVA=33.3333333 AllocationFactor=0.36956 
!New Load.1001745-D3 Phases=3 Bus1=S3X_1001745 kV=0.208 kW=0.0001 pf=0.9 status=variable model=4 CVRwatts=0.8 CVRvars=3 Class=1 yearly=25607 conn=wye xfkVA=100
New Load.1001745-D3_1 phases=1 S3X_1001745.1 kV=0.208 kW=0.0000333 pf=0.9 status=variable model=4 CVRwatts=0.8 CVRvars=3 Class=1 yearly=25607 conn=wye xfkVA=33.3333333 AllocationFactor=0.36956 
New Load.1001745-D3_2 phases=1 S3X_1001745.2 kV=0.208 kW=0.0000333 pf=0.9 status=variable model=4 CVRwatts=0.8 CVRvars=3 Class=1 yearly=25607 conn=wye xfkVA=33.3333333 AllocationFactor=0.36956 
New Load.1001745-D3_3 phases=1 S3X_1001745.3 kV=0.208 kW=0.0000333 pf=0.9 status=variable model=4 CVRwatts=0.8 CVRvars=3 Class=1 yearly=25607 conn=wye xfkVA=33.3333333 AllocationFactor=0.36956 
!New Load.1001329-D1 Phases=3 Bus1=S1X_1001329 kV=0.208 kW=0.0001 pf=0.9 status=variable model=4 CVRwatts=0.8 CVRvars=3 Class=1 yearly=25607 conn=wye xfkVA=50
New Load.1001329-D1_1 phases=1 S1X_1001329.1 kV=0.208 kW=0.0000333 pf=0.9 status=variable model=4 CVRwatts=0.8 CVRvars=3 Class=1 yearly=25607 conn=wye xfkVA=16.6666667 AllocationFactor=0.36956 
New Load.1001329-D1_2 phases=1 S1X_1001329.2 kV=0.208 kW=0.0000333 pf=0.9 status=variable model=4 CVRwatts=0.8 CVRvars=3 Class=1 yearly=25607 conn=wye xfkVA=16.6666667 AllocationFactor=0.36956 
New Load.1001329-D1_3 phases=1 S1X_1001329.3 kV=0.208 kW=0.0000333 pf=0.9 status=variable model=4 CVRwatts=0.8 CVRvars=3 Class=1 yearly=25607 conn=wye xfkVA=16.6666667 AllocationFactor=0.36956 
!New Load.1001329-D2 Phases=3 Bus1=S2X_1001329 kV=0.208 kW=0.0001 pf=0.9 status=variable model=4 CVRwatts=0.8 CVRvars=3 Class=1 yearly=25607 conn=wye xfkVA=50
New Load.1001329-D2_1 phases=1 S2X_1001329.1 kV=0.208 kW=0.0000333 pf=0.9 status=variable model=4 CVRwatts=0.8 CVRvars=3 Class=1 yearly=25607 conn=wye xfkVA=16.6666667 AllocationFactor=0.36956 
New Load.1001329-D2_2 phases=1 S2X_1001329.2 kV=0.208 kW=0.0000333 pf=0.9 status=variable model=4 CVRwatts=0.8 CVRvars=3 Class=1 yearly=25607 conn=wye xfkVA=16.6666667 AllocationFactor=0.36956 
New Load.1001329-D2_3 phases=1 S2X_1001329.3 kV=0.208 kW=0.0000333 pf=0.9 status=variable model=4 CVRwatts=0.8 CVRvars=3 Class=1 yearly=25607 conn=wye xfkVA=16.6666667 AllocationFactor=0.36956 
!New Load.1001329-D3 Phases=3 Bus1=S3X_1001329 kV=0.208 kW=0.0001 pf=0.9 status=variable model=4 CVRwatts=0.8 CVRvars=3 Class=1 yearly=25607 conn=wye xfkVA=50
New Load.1001329-D3_1 phases=1 S3X_1001329.1 kV=0.208 kW=0.0000333 pf=0.9 status=variable model=4 CVRwatts=0.8 CVRvars=3 Class=1 yearly=25607 conn=wye xfkVA=16.6666667 AllocationFactor=0.36956 
New Load.1001329-D3_2 phases=1 S3X_1001329.2 kV=0.208 kW=0.0000333 pf=0.9 status=variable model=4 CVRwatts=0.8 CVRvars=3 Class=1 yearly=25607 conn=wye xfkVA=16.6666667 AllocationFactor=0.36956 
New Load.1001329-D3_3 phases=1 S3X_1001329.3 kV=0.208 kW=0.0000333 pf=0.9 status=variable model=4 CVRwatts=0.8 CVRvars=3 Class=1 yearly=25607 conn=wye xfkVA=16.6666667 AllocationFactor=0.36956 
!New Load.1001359-D1 Phases=3 Bus1=S1X_1001359 kV=0.208 kW=0.0001 pf=0.9 status=variable model=4 CVRwatts=0.8 CVRvars=3 Class=1 yearly=25607 conn=wye xfkVA=166.67
New Load.1001359-D1_1 phases=1 S1X_1001359.1 kV=0.208 kW=0.0000333 pf=0.9 status=variable model=4 CVRwatts=0.8 CVRvars=3 Class=1 yearly=25607 conn=wye xfkVA=55.5566667 AllocationFactor=0.36956 
New Load.1001359-D1_2 phases=1 S1X_1001359.2 kV=0.208 kW=0.0000333 pf=0.9 status=variable model=4 CVRwatts=0.8 CVRvars=3 Class=1 yearly=25607 conn=wye xfkVA=55.5566667 AllocationFactor=0.36956 
New Load.1001359-D1_3 phases=1 S1X_1001359.3 kV=0.208 kW=0.0000333 pf=0.9 status=variable model=4 CVRwatts=0.8 CVRvars=3 Class=1 yearly=25607 conn=wye xfkVA=55.5566667 AllocationFactor=0.36956 
!New Load.1001359-D2 Phases=3 Bus1=S2X_1001359 kV=0.208 kW=0.0001 pf=0.9 status=variable model=4 CVRwatts=0.8 CVRvars=3 Class=1 yearly=25607 conn=wye xfkVA=166.67
New Load.1001359-D2_1 phases=1 S2X_1001359.1 kV=0.208 kW=0.0000333 pf=0.9 status=variable model=4 CVRwatts=0.8 CVRvars=3 Class=1 yearly=25607 conn=wye xfkVA=55.5566667 AllocationFactor=0.36956 
New Load.1001359-D2_2 phases=1 S2X_1001359.2 kV=0.208 kW=0.0000333 pf=0.9 status=variable model=4 CVRwatts=0.8 CVRvars=3 Class=1 yearly=25607 conn=wye xfkVA=55.5566667 AllocationFactor=0.36956 
New Load.1001359-D2_3 phases=1 S2X_1001359.3 kV=0.208 kW=0.0000333 pf=0.9 status=variable model=4 CVRwatts=0.8 CVRvars=3 Class=1 yearly=25607 conn=wye xfkVA=55.5566667 AllocationFactor=0.36956 
!New Load.1001359-D3 Phases=3 Bus1=S3X_1001359 kV=0.208 kW=0.0001 pf=0.9 status=variable model=4 CVRwatts=0.8 CVRvars=3 Class=1 yearly=25607 conn=wye xfkVA=166.67
New Load.1001359-D3_1 phases=1 S3X_1001359.1 kV=0.208 kW=0.0000333 pf=0.9 status=variable model=4 CVRwatts=0.8 CVRvars=3 Class=1 yearly=25607 conn=wye xfkVA=55.5566667 AllocationFactor=0.36956 
New Load.1001359-D3_2 phases=1 S3X_1001359.2 kV=0.208 kW=0.0000333 pf=0.9 status=variable model=4 CVRwatts=0.8 CVRvars=3 Class=1 yearly=25607 conn=wye xfkVA=55.5566667 AllocationFactor=0.36956 
New Load.1001359-D3_3 phases=1 S3X_1001359.3 kV=0.208 kW=0.0000333 pf=0.9 status=variable model=4 CVRwatts=0.8 CVRvars=3 Class=1 yearly=25607 conn=wye xfkVA=55.5566667 AllocationFactor=0.36956 
!New Load.1001330-D1 Phases=3 Bus1=S1X_1001330 kV=0.208 kW=0.0001 pf=0.9 status=variable model=4 CVRwatts=0.8 CVRvars=3 Class=1 yearly=25607 conn=wye xfkVA=50
New Load.1001330-D1_1 phases=1 S1X_1001330.1 kV=0.208 kW=0.0000333 pf=0.9 status=variable model=4 CVRwatts=0.8 CVRvars=3 Class=1 yearly=25607 conn=wye xfkVA=16.6666667 AllocationFactor=0.36956 
New Load.1001330-D1_2 phases=1 S1X_1001330.2 kV=0.208 kW=0.0000333 pf=0.9 status=variable model=4 CVRwatts=0.8 CVRvars=3 Class=1 yearly=25607 conn=wye xfkVA=16.6666667 AllocationFactor=0.36956 
New Load.1001330-D1_3 phases=1 S1X_1001330.3 kV=0.208 kW=0.0000333 pf=0.9 status=variable model=4 CVRwatts=0.8 CVRvars=3 Class=1 yearly=25607 conn=wye xfkVA=16.6666667 AllocationFactor=0.36956 
!New Load.1001330-D2 Phases=3 Bus1=S2X_1001330 kV=0.208 kW=0.0001 pf=0.9 status=variable model=4 CVRwatts=0.8 CVRvars=3 Class=1 yearly=25607 conn=wye xfkVA=50
New Load.1001330-D2_1 phases=1 S2X_1001330.1 kV=0.208 kW=0.0000333 pf=0.9 status=variable model=4 CVRwatts=0.8 CVRvars=3 Class=1 yearly=25607 conn=wye xfkVA=16.6666667 AllocationFactor=0.36956 
New Load.1001330-D2_2 phases=1 S2X_1001330.2 kV=0.208 kW=0.0000333 pf=0.9 status=variable model=4 CVRwatts=0.8 CVRvars=3 Class=1 yearly=25607 conn=wye xfkVA=16.6666667 AllocationFactor=0.36956 
New Load.1001330-D2_3 phases=1 S2X_1001330.3 kV=0.208 kW=0.0000333 pf=0.9 status=variable model=4 CVRwatts=0.8 CVRvars=3 Class=1 yearly=25607 conn=wye xfkVA=16.6666667 AllocationFactor=0.36956 
!New Load.1001330-D3 Phases=3 Bus1=S3X_1001330 kV=0.208 kW=0.0001 pf=0.9 status=variable model=4 CVRwatts=0.8 CVRvars=3 Class=1 yearly=25607 conn=wye xfkVA=50
New Load.1001330-D3_1 phases=1 S3X_1001330.1 kV=0.208 kW=0.0000333 pf=0.9 status=variable model=4 CVRwatts=0.8 CVRvars=3 Class=1 yearly=25607 conn=wye xfkVA=16.6666667 AllocationFactor=0.36956 
New Load.1001330-D3_2 phases=1 S3X_1001330.2 kV=0.208 kW=0.0000333 pf=0.9 status=variable model=4 CVRwatts=0.8 CVRvars=3 Class=1 yearly=25607 conn=wye xfkVA=16.6666667 AllocationFactor=0.36956 
New Load.1001330-D3_3 phases=1 S3X_1001330.3 kV=0.208 kW=0.0000333 pf=0.9 status=variable model=4 CVRwatts=0.8 CVRvars=3 Class=1 yearly=25607 conn=wye xfkVA=16.6666667 AllocationFactor=0.36956 
!New Load.1001330-D4 Phases=3 Bus1=S4X_1001330 kV=0.208 kW=0.0001 pf=0.9 status=variable model=4 CVRwatts=0.8 CVRvars=3 Class=1 yearly=25607 conn=wye xfkVA=50
New Load.1001330-D4_1 phases=1 S4X_1001330.1 kV=0.208 kW=0.0000333 pf=0.9 status=variable model=4 CVRwatts=0.8 CVRvars=3 Class=1 yearly=25607 conn=wye xfkVA=16.6666667 AllocationFactor=0.36956 
New Load.1001330-D4_2 phases=1 S4X_1001330.2 kV=0.208 kW=0.0000333 pf=0.9 status=variable model=4 CVRwatts=0.8 CVRvars=3 Class=1 yearly=25607 conn=wye xfkVA=16.6666667 AllocationFactor=0.36956 
New Load.1001330-D4_3 phases=1 S4X_1001330.3 kV=0.208 kW=0.0000333 pf=0.9 status=variable model=4 CVRwatts=0.8 CVRvars=3 Class=1 yearly=25607 conn=wye xfkVA=16.6666667 AllocationFactor=0.36956 
!New Load.1001330-D5 Phases=3 Bus1=S5X_1001330 kV=0.208 kW=0.0001 pf=0.9 status=variable model=4 CVRwatts=0.8 CVRvars=3 Class=1 yearly=25607 conn=wye xfkVA=50
New Load.1001330-D5_1 phases=1 S5X_1001330.1 kV=0.208 kW=0.0000333 pf=0.9 status=variable model=4 CVRwatts=0.8 CVRvars=3 Class=1 yearly=25607 conn=wye xfkVA=16.6666667 AllocationFactor=0.36956 
New Load.1001330-D5_2 phases=1 S5X_1001330.2 kV=0.208 kW=0.0000333 pf=0.9 status=variable model=4 CVRwatts=0.8 CVRvars=3 Class=1 yearly=25607 conn=wye xfkVA=16.6666667 AllocationFactor=0.36956 
New Load.1001330-D5_3 phases=1 S5X_1001330.3 kV=0.208 kW=0.0000333 pf=0.9 status=variable model=4 CVRwatts=0.8 CVRvars=3 Class=1 yearly=25607 conn=wye xfkVA=16.6666667 AllocationFactor=0.36956 
!New Load.1001330-D6 Phases=3 Bus1=S6X_1001330 kV=0.208 kW=0.0001 pf=0.9 status=variable model=4 CVRwatts=0.8 CVRvars=3 Class=1 yearly=25607 conn=wye xfkVA=50
New Load.1001330-D6_1 phases=1 S6X_1001330.1 kV=0.208 kW=0.0000333 pf=0.9 status=variable model=4 CVRwatts=0.8 CVRvars=3 Class=1 yearly=25607 conn=wye xfkVA=16.6666667 AllocationFactor=0.36956 
New Load.1001330-D6_2 phases=1 S6X_1001330.2 kV=0.208 kW=0.0000333 pf=0.9 status=variable model=4 CVRwatts=0.8 CVRvars=3 Class=1 yearly=25607 conn=wye xfkVA=16.6666667 AllocationFactor=0.36956 
New Load.1001330-D6_3 phases=1 S6X_1001330.3 kV=0.208 kW=0.0000333 pf=0.9 status=variable model=4 CVRwatts=0.8 CVRvars=3 Class=1 yearly=25607 conn=wye xfkVA=16.6666667 AllocationFactor=0.36956 
New Load.1000672-DA1 Phases=1 Bus1=S1X_1000672.1 kV=0.24 kW=0.0001 pf=0.9 status=variable model=4 CVRwatts=0.8 CVRvars=3 Class=1 yearly=25607_A conn=wye xfkVA=25 AllocationFactor=0.35537
!New Load.1001708-D1 Phases=3 Bus1=S1X_1001708 kV=0.208 kW=0.0001 pf=0.9 status=variable model=4 CVRwatts=0.8 CVRvars=3 Class=1 yearly=25607 conn=wye xfkVA=250
New Load.1001708-D1_1 phases=1 S1X_1001708.1 kV=0.208 kW=0.0000333 pf=0.9 status=variable model=4 CVRwatts=0.8 CVRvars=3 Class=1 yearly=25607 conn=wye xfkVA=83.3333333 AllocationFactor=0.36956 
New Load.1001708-D1_2 phases=1 S1X_1001708.2 kV=0.208 kW=0.0000333 pf=0.9 status=variable model=4 CVRwatts=0.8 CVRvars=3 Class=1 yearly=25607 conn=wye xfkVA=83.3333333 AllocationFactor=0.36956 
New Load.1001708-D1_3 phases=1 S1X_1001708.3 kV=0.208 kW=0.0000333 pf=0.9 status=variable model=4 CVRwatts=0.8 CVRvars=3 Class=1 yearly=25607 conn=wye xfkVA=83.3333333 AllocationFactor=0.36956 
!New Load.1001708-D2 Phases=3 Bus1=S2X_1001708 kV=0.208 kW=0.0001 pf=0.9 status=variable model=4 CVRwatts=0.8 CVRvars=3 Class=1 yearly=25607 conn=wye xfkVA=250
New Load.1001708-D2_1 phases=1 S2X_1001708.1 kV=0.208 kW=0.0000333 pf=0.9 status=variable model=4 CVRwatts=0.8 CVRvars=3 Class=1 yearly=25607 conn=wye xfkVA=83.3333333 AllocationFactor=0.36956 
New Load.1001708-D2_2 phases=1 S2X_1001708.2 kV=0.208 kW=0.0000333 pf=0.9 status=variable model=4 CVRwatts=0.8 CVRvars=3 Class=1 yearly=25607 conn=wye xfkVA=83.3333333 AllocationFactor=0.36956 
New Load.1001708-D2_3 phases=1 S2X_1001708.3 kV=0.208 kW=0.0000333 pf=0.9 status=variable model=4 CVRwatts=0.8 CVRvars=3 Class=1 yearly=25607 conn=wye xfkVA=83.3333333 AllocationFactor=0.36956 
!New Load.1001708-D3 Phases=3 Bus1=S3X_1001708 kV=0.208 kW=0.0001 pf=0.9 status=variable model=4 CVRwatts=0.8 CVRvars=3 Class=1 yearly=25607 conn=wye xfkVA=250
New Load.1001708-D3_1 phases=1 S3X_1001708.1 kV=0.208 kW=0.0000333 pf=0.9 status=variable model=4 CVRwatts=0.8 CVRvars=3 Class=1 yearly=25607 conn=wye xfkVA=83.3333333 AllocationFactor=0.36956 
New Load.1001708-D3_2 phases=1 S3X_1001708.2 kV=0.208 kW=0.0000333 pf=0.9 status=variable model=4 CVRwatts=0.8 CVRvars=3 Class=1 yearly=25607 conn=wye xfkVA=83.3333333 AllocationFactor=0.36956 
New Load.1001708-D3_3 phases=1 S3X_1001708.3 kV=0.208 kW=0.0000333 pf=0.9 status=variable model=4 CVRwatts=0.8 CVRvars=3 Class=1 yearly=25607 conn=wye xfkVA=83.3333333 AllocationFactor=0.36956 
!New Load.1001345-D1 Phases=3 Bus1=S1X_1001345 kV=0.208 kW=0.0001 pf=0.9 status=variable model=4 CVRwatts=0.8 CVRvars=3 Class=1 yearly=25607 conn=wye xfkVA=50
New Load.1001345-D1_1 phases=1 S1X_1001345.1 kV=0.208 kW=0.0000333 pf=0.9 status=variable model=4 CVRwatts=0.8 CVRvars=3 Class=1 yearly=25607 conn=wye xfkVA=16.6666667 AllocationFactor=0.36956 
New Load.1001345-D1_2 phases=1 S1X_1001345.2 kV=0.208 kW=0.0000333 pf=0.9 status=variable model=4 CVRwatts=0.8 CVRvars=3 Class=1 yearly=25607 conn=wye xfkVA=16.6666667 AllocationFactor=0.36956 
New Load.1001345-D1_3 phases=1 S1X_1001345.3 kV=0.208 kW=0.0000333 pf=0.9 status=variable model=4 CVRwatts=0.8 CVRvars=3 Class=1 yearly=25607 conn=wye xfkVA=16.6666667 AllocationFactor=0.36956 
!New Load.1001345-D2 Phases=3 Bus1=S2X_1001345 kV=0.208 kW=0.0001 pf=0.9 status=variable model=4 CVRwatts=0.8 CVRvars=3 Class=1 yearly=25607 conn=wye xfkVA=50
New Load.1001345-D2_1 phases=1 S2X_1001345.1 kV=0.208 kW=0.0000333 pf=0.9 status=variable model=4 CVRwatts=0.8 CVRvars=3 Class=1 yearly=25607 conn=wye xfkVA=16.6666667 AllocationFactor=0.36956 
New Load.1001345-D2_2 phases=1 S2X_1001345.2 kV=0.208 kW=0.0000333 pf=0.9 status=variable model=4 CVRwatts=0.8 CVRvars=3 Class=1 yearly=25607 conn=wye xfkVA=16.6666667 AllocationFactor=0.36956 
New Load.1001345-D2_3 phases=1 S2X_1001345.3 kV=0.208 kW=0.0000333 pf=0.9 status=variable model=4 CVRwatts=0.8 CVRvars=3 Class=1 yearly=25607 conn=wye xfkVA=16.6666667 AllocationFactor=0.36956 
!New Load.1001345-D3 Phases=3 Bus1=S3X_1001345 kV=0.208 kW=0.0001 pf=0.9 status=variable model=4 CVRwatts=0.8 CVRvars=3 Class=1 yearly=25607 conn=wye xfkVA=50
New Load.1001345-D3_1 phases=1 S3X_1001345.1 kV=0.208 kW=0.0000333 pf=0.9 status=variable model=4 CVRwatts=0.8 CVRvars=3 Class=1 yearly=25607 conn=wye xfkVA=16.6666667 AllocationFactor=0.36956 
New Load.1001345-D3_2 phases=1 S3X_1001345.2 kV=0.208 kW=0.0000333 pf=0.9 status=variable model=4 CVRwatts=0.8 CVRvars=3 Class=1 yearly=25607 conn=wye xfkVA=16.6666667 AllocationFactor=0.36956 
New Load.1001345-D3_3 phases=1 S3X_1001345.3 kV=0.208 kW=0.0000333 pf=0.9 status=variable model=4 CVRwatts=0.8 CVRvars=3 Class=1 yearly=25607 conn=wye xfkVA=16.6666667 AllocationFactor=0.36956 
!New Load.1000933-D1 Phases=3 Bus1=S1X_1000933 kV=0.208 kW=0.0001 pf=0.9 status=variable model=4 CVRwatts=0.8 CVRvars=3 Class=1 yearly=25607 conn=wye xfkVA=10
New Load.1000933-D1_1 phases=1 S1X_1000933.1 kV=0.208 kW=0.0000333 pf=0.9 status=variable model=4 CVRwatts=0.8 CVRvars=3 Class=1 yearly=25607 conn=wye xfkVA=3.3333333 AllocationFactor=0.36956 
New Load.1000933-D1_2 phases=1 S1X_1000933.2 kV=0.208 kW=0.0000333 pf=0.9 status=variable model=4 CVRwatts=0.8 CVRvars=3 Class=1 yearly=25607 conn=wye xfkVA=3.3333333 AllocationFactor=0.36956 
New Load.1000933-D1_3 phases=1 S1X_1000933.3 kV=0.208 kW=0.0000333 pf=0.9 status=variable model=4 CVRwatts=0.8 CVRvars=3 Class=1 yearly=25607 conn=wye xfkVA=3.3333333 AllocationFactor=0.36956 
!New Load.1000933-D2 Phases=3 Bus1=S2X_1000933 kV=0.208 kW=0.0001 pf=0.9 status=variable model=4 CVRwatts=0.8 CVRvars=3 Class=1 yearly=25607 conn=wye xfkVA=10
New Load.1000933-D2_1 phases=1 S2X_1000933.1 kV=0.208 kW=0.0000333 pf=0.9 status=variable model=4 CVRwatts=0.8 CVRvars=3 Class=1 yearly=25607 conn=wye xfkVA=3.3333333 AllocationFactor=0.36956 
New Load.1000933-D2_2 phases=1 S2X_1000933.2 kV=0.208 kW=0.0000333 pf=0.9 status=variable model=4 CVRwatts=0.8 CVRvars=3 Class=1 yearly=25607 conn=wye xfkVA=3.3333333 AllocationFactor=0.36956 
New Load.1000933-D2_3 phases=1 S2X_1000933.3 kV=0.208 kW=0.0000333 pf=0.9 status=variable model=4 CVRwatts=0.8 CVRvars=3 Class=1 yearly=25607 conn=wye xfkVA=3.3333333 AllocationFactor=0.36956 
!New Load.1000933-D3 Phases=3 Bus1=S3X_1000933 kV=0.208 kW=0.0001 pf=0.9 status=variable model=4 CVRwatts=0.8 CVRvars=3 Class=1 yearly=25607 conn=wye xfkVA=10
New Load.1000933-D3_1 phases=1 S3X_1000933.1 kV=0.208 kW=0.0000333 pf=0.9 status=variable model=4 CVRwatts=0.8 CVRvars=3 Class=1 yearly=25607 conn=wye xfkVA=3.3333333 AllocationFactor=0.36956 
New Load.1000933-D3_2 phases=1 S3X_1000933.2 kV=0.208 kW=0.0000333 pf=0.9 status=variable model=4 CVRwatts=0.8 CVRvars=3 Class=1 yearly=25607 conn=wye xfkVA=3.3333333 AllocationFactor=0.36956 
New Load.1000933-D3_3 phases=1 S3X_1000933.3 kV=0.208 kW=0.0000333 pf=0.9 status=variable model=4 CVRwatts=0.8 CVRvars=3 Class=1 yearly=25607 conn=wye xfkVA=3.3333333 AllocationFactor=0.36956 
!New Load.1000933-D4 Phases=3 Bus1=S4X_1000933 kV=0.208 kW=0.0001 pf=0.9 status=variable model=4 CVRwatts=0.8 CVRvars=3 Class=1 yearly=25607 conn=wye xfkVA=10
New Load.1000933-D4_1 phases=1 S4X_1000933.1 kV=0.208 kW=0.0000333 pf=0.9 status=variable model=4 CVRwatts=0.8 CVRvars=3 Class=1 yearly=25607 conn=wye xfkVA=3.3333333 AllocationFactor=0.36956 
New Load.1000933-D4_2 phases=1 S4X_1000933.2 kV=0.208 kW=0.0000333 pf=0.9 status=variable model=4 CVRwatts=0.8 CVRvars=3 Class=1 yearly=25607 conn=wye xfkVA=3.3333333 AllocationFactor=0.36956 
New Load.1000933-D4_3 phases=1 S4X_1000933.3 kV=0.208 kW=0.0000333 pf=0.9 status=variable model=4 CVRwatts=0.8 CVRvars=3 Class=1 yearly=25607 conn=wye xfkVA=3.3333333 AllocationFactor=0.36956 
!New Load.1000933-D5 Phases=3 Bus1=S5X_1000933 kV=0.208 kW=0.0001 pf=0.9 status=variable model=4 CVRwatts=0.8 CVRvars=3 Class=1 yearly=25607 conn=wye xfkVA=10
New Load.1000933-D5_1 phases=1 S5X_1000933.1 kV=0.208 kW=0.0000333 pf=0.9 status=variable model=4 CVRwatts=0.8 CVRvars=3 Class=1 yearly=25607 conn=wye xfkVA=3.3333333 AllocationFactor=0.36956 
New Load.1000933-D5_2 phases=1 S5X_1000933.2 kV=0.208 kW=0.0000333 pf=0.9 status=variable model=4 CVRwatts=0.8 CVRvars=3 Class=1 yearly=25607 conn=wye xfkVA=3.3333333 AllocationFactor=0.36956 
New Load.1000933-D5_3 phases=1 S5X_1000933.3 kV=0.208 kW=0.0000333 pf=0.9 status=variable model=4 CVRwatts=0.8 CVRvars=3 Class=1 yearly=25607 conn=wye xfkVA=3.3333333 AllocationFactor=0.36956 
!New Load.1000933-D6 Phases=3 Bus1=S6X_1000933 kV=0.208 kW=0.0001 pf=0.9 status=variable model=4 CVRwatts=0.8 CVRvars=3 Class=1 yearly=25607 conn=wye xfkVA=10
New Load.1000933-D6_1 phases=1 S6X_1000933.1 kV=0.208 kW=0.0000333 pf=0.9 status=variable model=4 CVRwatts=0.8 CVRvars=3 Class=1 yearly=25607 conn=wye xfkVA=3.3333333 AllocationFactor=0.36956 
New Load.1000933-D6_2 phases=1 S6X_1000933.2 kV=0.208 kW=0.0000333 pf=0.9 status=variable model=4 CVRwatts=0.8 CVRvars=3 Class=1 yearly=25607 conn=wye xfkVA=3.3333333 AllocationFactor=0.36956 
New Load.1000933-D6_3 phases=1 S6X_1000933.3 kV=0.208 kW=0.0000333 pf=0.9 status=variable model=4 CVRwatts=0.8 CVRvars=3 Class=1 yearly=25607 conn=wye xfkVA=3.3333333 AllocationFactor=0.36956 
!New Load.1000933-D7 Phases=3 Bus1=S7X_1000933 kV=0.208 kW=0.0001 pf=0.9 status=variable model=4 CVRwatts=0.8 CVRvars=3 Class=1 yearly=25607 conn=wye xfkVA=10
New Load.1000933-D7_1 phases=1 S7X_1000933.1 kV=0.208 kW=0.0000333 pf=0.9 status=variable model=4 CVRwatts=0.8 CVRvars=3 Class=1 yearly=25607 conn=wye xfkVA=3.3333333 AllocationFactor=0.36956 
New Load.1000933-D7_2 phases=1 S7X_1000933.2 kV=0.208 kW=0.0000333 pf=0.9 status=variable model=4 CVRwatts=0.8 CVRvars=3 Class=1 yearly=25607 conn=wye xfkVA=3.3333333 AllocationFactor=0.36956 
New Load.1000933-D7_3 phases=1 S7X_1000933.3 kV=0.208 kW=0.0000333 pf=0.9 status=variable model=4 CVRwatts=0.8 CVRvars=3 Class=1 yearly=25607 conn=wye xfkVA=3.3333333 AllocationFactor=0.36956 
!New Load.1000933-D8 Phases=3 Bus1=S8X_1000933 kV=0.208 kW=0.0001 pf=0.9 status=variable model=4 CVRwatts=0.8 CVRvars=3 Class=1 yearly=25607 conn=wye xfkVA=10
New Load.1000933-D8_1 phases=1 S8X_1000933.1 kV=0.208 kW=0.0000333 pf=0.9 status=variable model=4 CVRwatts=0.8 CVRvars=3 Class=1 yearly=25607 conn=wye xfkVA=3.3333333 AllocationFactor=0.36956 
New Load.1000933-D8_2 phases=1 S8X_1000933.2 kV=0.208 kW=0.0000333 pf=0.9 status=variable model=4 CVRwatts=0.8 CVRvars=3 Class=1 yearly=25607 conn=wye xfkVA=3.3333333 AllocationFactor=0.36956 
New Load.1000933-D8_3 phases=1 S8X_1000933.3 kV=0.208 kW=0.0000333 pf=0.9 status=variable model=4 CVRwatts=0.8 CVRvars=3 Class=1 yearly=25607 conn=wye xfkVA=3.3333333 AllocationFactor=0.36956 
!New Load.1000933-D9 Phases=3 Bus1=S9X_1000933 kV=0.208 kW=0.0001 pf=0.9 status=variable model=4 CVRwatts=0.8 CVRvars=3 Class=1 yearly=25607 conn=wye xfkVA=10
New Load.1000933-D9_1 phases=1 S9X_1000933.1 kV=0.208 kW=0.0000333 pf=0.9 status=variable model=4 CVRwatts=0.8 CVRvars=3 Class=1 yearly=25607 conn=wye xfkVA=3.3333333 AllocationFactor=0.36956 
New Load.1000933-D9_2 phases=1 S9X_1000933.2 kV=0.208 kW=0.0000333 pf=0.9 status=variable model=4 CVRwatts=0.8 CVRvars=3 Class=1 yearly=25607 conn=wye xfkVA=3.3333333 AllocationFactor=0.36956 
New Load.1000933-D9_3 phases=1 S9X_1000933.3 kV=0.208 kW=0.0000333 pf=0.9 status=variable model=4 CVRwatts=0.8 CVRvars=3 Class=1 yearly=25607 conn=wye xfkVA=3.3333333 AllocationFactor=0.36956 
!New Load.1000933-D10 Phases=3 Bus1=S10X_1000933 kV=0.208 kW=0.0001 pf=0.9 status=variable model=4 CVRwatts=0.8 CVRvars=3 Class=1 yearly=25607 conn=wye xfkVA=10
New Load.1000933-D10_1 phases=1 S10X_1000933.1 kV=0.208 kW=0.0000333 pf=0.9 status=variable model=4 CVRwatts=0.8 CVRvars=3 Class=1 yearly=25607 conn=wye xfkVA=3.3333333 AllocationFactor=0.36956 