New Loadshape.Shape_1 npts=1440 minterval=1 csvfile='household-profiles\1.csv' useactual=true
New Loadshape.Shape_2 npts=1440 minterval=1 csvfile='household-profiles\2.csv' useactual=true
New Loadshape.Shape_3 npts=1440 minterval=1 csvfile='household-profiles\3.csv' useactual=true
New Loadshape.Shape_4 npts=1440 minterval=1 csvfile='household-profiles\4.csv' useactual=true
New Loadshape.Shape_5 npts=1440 minterval=1 csvfile='household-profiles\5.csv' useactual=true
New Loadshape.Shape_6 npts=1440 minterval=1 csvfile='household-profiles\6.csv' useactual=true
New Loadshape.Shape_7 npts=1440 minterval=1 csvfile='household-profiles\7.csv' useactual=true
New Loadshape.Shape_8 npts=1440 minterval=1 csvfile='household-profiles\8.csv' useactual=true
New Loadshape.Shape_9 npts=1440 minterval=1 csvfile='household-profiles\9.csv' useactual=true
New Loadshape.Shape_10 npts=1440 minterval=1 csvfile='household-profiles\10.csv' useactual=true
New Loadshape.Shape_11 npts=1440 minterval=1 csvfile='household-profiles\11.csv' useactual=true useactual=true
New Loadshape.Shape_12 npts=1440 minterval=1 csvfile='household-profiles\12.csv' useactual=true useactual=true
New Loadshape.Shape_13 npts=1440 minterval=1 csvfile='household-profiles\13.csv' useactual=true useactual=true
New Loadshape.Shape_14 npts=1440 minterval=1 csvfile='household-profiles\14.csv' useactual=true useactual=true
New Loadshape.Shape_15 npts=1440 minterval=1 csvfile='household-profiles\15.csv' useactual=true useactual=true
New Loadshape.Shape_16 npts=1440 minterval=1 csvfile='household-profiles\16.csv' useactual=true useactual=true
New Loadshape.Shape_17 npts=1440 minterval=1 csvfile='household-profiles\17.csv' useactual=true useactual=true
New Loadshape.Shape_18 npts=1440 minterval=1 csvfile='household-profiles\18.csv' useactual=true useactual=true
New Loadshape.Shape_19 npts=1440 minterval=1 csvfile='household-profiles\19.csv' useactual=true useactual=true
New Loadshape.Shape_20 npts=1440 minterval=1 csvfile='household-profiles\20.csv' useactual=true useactual=true
New Loadshape.Shape_21 npts=1440 minterval=1 csvfile='household-profiles\21.csv' useactual=true useactual=true
New Loadshape.Shape_22 npts=1440 minterval=1 csvfile='household-profiles\22.csv' useactual=true useactual=true
New Loadshape.Shape_23 npts=1440 minterval=1 csvfile='household-profiles\23.csv' useactual=true
New Loadshape.Shape_24 npts=1440 minterval=1 csvfile='household-profiles\24.csv' useactual=true
New Loadshape.Shape_25 npts=1440 minterval=1 csvfile='household-profiles\25.csv' useactual=true
New Loadshape.Shape_26 npts=1440 minterval=1 csvfile='household-profiles\26.csv' useactual=true
New Loadshape.Shape_27 npts=1440 minterval=1 csvfile='household-profiles\27.csv' useactual=true
New Loadshape.Shape_28 npts=1440 minterval=1 csvfile='household-profiles\28.csv' useactual=true
New Loadshape.Shape_29 npts=1440 minterval=1 csvfile='household-profiles\29.csv' useactual=true
New Loadshape.Shape_30 npts=1440 minterval=1 csvfile='household-profiles\30.csv' useactual=true
New Loadshape.Shape_31 npts=1440 minterval=1 csvfile='household-profiles\31.csv' useactual=true
New Loadshape.Shape_32 npts=1440 minterval=1 csvfile='household-profiles\32.csv' useactual=true
New Loadshape.Shape_33 npts=1440 minterval=1 csvfile='household-profiles\33.csv' useactual=true
New Loadshape.Shape_34 npts=1440 minterval=1 csvfile='household-profiles\34.csv' useactual=true
New Loadshape.Shape_35 npts=1440 minterval=1 csvfile='household-profiles\35.csv' useactual=true
New Loadshape.Shape_36 npts=1440 minterval=1 csvfile='household-profiles\36.csv' useactual=true
New Loadshape.Shape_37 npts=1440 minterval=1 csvfile='household-profiles\37.csv' useactual=true
New Loadshape.Shape_38 npts=1440 minterval=1 csvfile='household-profiles\38.csv' useactual=true
New Loadshape.Shape_39 npts=1440 minterval=1 csvfile='household-profiles\39.csv' useactual=true
New Loadshape.Shape_40 npts=1440 minterval=1 csvfile='household-profiles\40.csv' useactual=true
New Loadshape.Shape_41 npts=1440 minterval=1 csvfile='household-profiles\41.csv' useactual=true
New Loadshape.Shape_42 npts=1440 minterval=1 csvfile='household-profiles\42.csv' useactual=true
New Loadshape.Shape_43 npts=1440 minterval=1 csvfile='household-profiles\43.csv' useactual=true
New Loadshape.Shape_44 npts=1440 minterval=1 csvfile='household-profiles\44.csv' useactual=true
New Loadshape.Shape_45 npts=1440 minterval=1 csvfile='household-profiles\45.csv' useactual=true
New Loadshape.Shape_46 npts=1440 minterval=1 csvfile='household-profiles\46.csv' useactual=true
New Loadshape.Shape_47 npts=1440 minterval=1 csvfile='household-profiles\47.csv' useactual=true
New Loadshape.Shape_48 npts=1440 minterval=1 csvfile='household-profiles\48.csv' useactual=true
New Loadshape.Shape_49 npts=1440 minterval=1 csvfile='household-profiles\49.csv' useactual=true
New Loadshape.Shape_50 npts=1440 minterval=1 csvfile='household-profiles\50.csv' useactual=true
New Loadshape.Shape_51 npts=1440 minterval=1 csvfile='household-profiles\51.csv' useactual=true
New Loadshape.Shape_52 npts=1440 minterval=1 csvfile='household-profiles\52.csv' useactual=true
New Loadshape.Shape_53 npts=1440 minterval=1 csvfile='household-profiles\53.csv' useactual=true
New Loadshape.Shape_54 npts=1440 minterval=1 csvfile='household-profiles\54.csv' useactual=true
New Loadshape.Shape_55 npts=1440 minterval=1 csvfile='household-profiles\55.csv' useactual=true
